<?xml version="1.0" encoding="UTF-8"?>
<!DOCTYPE network SYSTEM "http://www.matsim.org/files/dtd/network_v2.dtd">
<network name="">

<!-- ====================================================================== -->

	<nodes>
		<node id="0" x="-479.953" y="265.449" >
		</node>
		<node id="1" x="-374.93" y="412.035" >
		</node>
		<node id="10" x="482.78" y="-122.655" >
		</node>
		<node id="100" x="965.226" y="317.46" >
		</node>
		<node id="101" x="1385.675" y="193.906" >
		</node>
		<node id="102" x="-1550.252" y="44.036" >
		</node>
		<node id="103" x="-1088.463" y="-129.346" >
		</node>
		<node id="104" x="-72.998" y="-422.528" >
		</node>
		<node id="105" x="94.28" y="-470.824" >
		</node>
		<node id="106" x="258.549" y="-518.252" >
		</node>
		<node id="107" x="-994.93" y="498.459" >
		</node>
		<node id="108" x="-708.225" y="336.128" >
		</node>
		<node id="109" x="-1146.41" y="-314.036" >
		</node>
		<node id="11" x="559.722" y="144.566" >
		</node>
		<node id="110" x="832.641" y="1064.629" >
		</node>
		<node id="111" x="885.391" y="51.369" >
		</node>
		<node id="112" x="-1666.674" y="598.795" >
		</node>
		<node id="113" x="-626.593" y="-512.738" >
		</node>
		<node id="114" x="-147.308" y="-683.799" >
		</node>
		<node id="115" x="611.155" y="-819.351" >
		</node>
		<node id="116" x="148.134" y="-295.715" >
		</node>
		<node id="117" x="1058.59" y="-545.067" >
		</node>
		<node id="118" x="1194.268" y="-1044.323" >
		</node>
		<node id="119" x="-1379.813" y="495.71" >
		</node>
		<node id="12" x="-1821.512" y="245.157" >
		</node>
		<node id="120" x="-1811.254" y="1013.108" >
		</node>
		<node id="121" x="-1614.353" y="1269.605" >
		</node>
		<node id="122" x="1444.146" y="-589.769" >
		</node>
		<node id="123" x="395.984" y="-520.786" >
		</node>
		<node id="124" x="134.354" y="-340.522" >
		</node>
		<node id="125" x="1492.531" y="716.992" >
		</node>
		<node id="126" x="18.373" y="-101.271" >
		</node>
		<node id="127" x="137.59" y="-135.822" >
		</node>
		<node id="128" x="-321.999" y="216.542" >
		</node>
		<node id="129" x="90.015" y="150.621" >
		</node>
		<node id="13" x="-1519.379" y="151.555" >
		</node>
		<node id="130" x="241.083" y="235.751" >
		</node>
		<node id="131" x="123.775" y="269.321" >
		</node>
		<node id="132" x="-614.054" y="1295.21" >
		</node>
		<node id="133" x="-1811.06" y="621.799" >
		</node>
		<node id="134" x="693.098" y="106.398" >
		</node>
		<node id="14" x="-1356.801" y="101.188" >
		</node>
		<node id="15" x="-1046.312" y="4.997" >
		</node>
		<node id="16" x="-1816.965" y="384.37" >
		</node>
		<node id="17" x="-1480.958" y="285.357" >
		</node>
		<node id="18" x="-1334.686" y="242.254" >
		</node>
		<node id="19" x="-1001.741" y="144.143" >
		</node>
		<node id="2" x="1131.202" y="-317.623" >
		</node>
		<node id="20" x="160.753" y="-203.58" >
		</node>
		<node id="21" x="839.327" y="-229.862" >
		</node>
		<node id="22" x="-327.372" y="-2.136" >
		</node>
		<node id="23" x="-293.345" y="110.71" >
		</node>
		<node id="24" x="-118.195" y="-61.69" >
		</node>
		<node id="25" x="-87.365" y="48.776" >
		</node>
		<node id="26" x="-1183.737" y="528.357" >
		</node>
		<node id="27" x="-1166.768" y="629.579" >
		</node>
		<node id="28" x="-1127.102" y="866.183" >
		</node>
		<node id="29" x="-1608.503" y="390.616" >
		</node>
		<node id="3" x="1341.465" y="206.897" >
		</node>
		<node id="30" x="-1572.475" y="583.787" >
		</node>
		<node id="31" x="-1552.173" y="692.64" >
		</node>
		<node id="32" x="-1373.823" y="552.137" >
		</node>
		<node id="33" x="-1355.885" y="660.523" >
		</node>
		<node id="34" x="-1316.583" y="898.008" >
		</node>
		<node id="35" x="-1610.05" y="947.3" >
		</node>
		<node id="36" x="-1221.394" y="882.02" >
		</node>
		<node id="37" x="1092.184" y="-65.909" >
		</node>
		<node id="38" x="1260.123" y="230.801" >
		</node>
		<node id="39" x="-779.277" y="807.761" >
		</node>
		<node id="4" x="427.984" y="182.265" >
		</node>
		<node id="40" x="-660.226" y="838.436" >
		</node>
		<node id="41" x="-501.457" y="879.346" >
		</node>
		<node id="42" x="39.665" y="849.054" >
		</node>
		<node id="43" x="246.124" y="787.653" >
		</node>
		<node id="44" x="386.243" y="745.982" >
		</node>
		<node id="45" x="626.03" y="674.67" >
		</node>
		<node id="46" x="710.608" y="649.517" >
		</node>
		<node id="47" x="847.183" y="608.899" >
		</node>
		<node id="48" x="1035.834" y="552.795" >
		</node>
		<node id="49" x="1360.884" y="456.125" >
		</node>
		<node id="5" x="515.368" y="-9.477" >
		</node>
		<node id="50" x="1133.704" y="523.688" >
		</node>
		<node id="51" x="1410.872" y="441.259" >
		</node>
		<node id="52" x="1460.546" y="426.486" >
		</node>
		<node id="53" x="-1809.423" y="424.832" >
		</node>
		<node id="54" x="-1724.469" y="410.365" >
		</node>
		<node id="55" x="-1458.09" y="365.0" >
		</node>
		<node id="56" x="-1319.152" y="341.339" >
		</node>
		<node id="57" x="-1030.097" y="292.113" >
		</node>
		<node id="58" x="-951.335" y="278.7" >
		</node>
		<node id="59" x="-972.405" y="206.463" >
		</node>
		<node id="6" x="-1806.461" y="16.071" >
		</node>
		<node id="60" x="-695.545" y="92.038" >
		</node>
		<node id="61" x="-724.98" y="240.152" >
		</node>
		<node id="62" x="-190.189" y="79.693" >
		</node>
		<node id="63" x="49.357" y="7.667" >
		</node>
		<node id="64" x="166.199" y="-27.466" >
		</node>
		<node id="65" x="804.183" y="-219.295" >
		</node>
		<node id="66" x="1245.131" y="-351.879" >
		</node>
		<node id="67" x="-376.005" y="6.286" >
		</node>
		<node id="68" x="-1177.596" y="1152.913" >
		</node>
		<node id="69" x="-1162.501" y="1246.278" >
		</node>
		<node id="7" x="-1758.137" y="-5.591" >
		</node>
		<node id="70" x="-148.596" y="218.912" >
		</node>
		<node id="71" x="-113.269" y="337.156" >
		</node>
		<node id="72" x="-31.635" y="610.4" >
		</node>
		<node id="73" x="107.302" y="1075.447" >
		</node>
		<node id="74" x="156.868" y="1241.354" >
		</node>
		<node id="75" x="-1403.435" y="-149.533" >
		</node>
		<node id="76" x="-1374.618" y="-7.807" >
		</node>
		<node id="77" x="-1293.119" y="475.648" >
		</node>
		<node id="78" x="-724.247" y="1098.588" >
		</node>
		<node id="79" x="-571.179" y="1136.855" >
		</node>
		<node id="8" x="10.76" y="-742.392" >
		</node>
		<node id="80" x="314.203" y="1014.33" >
		</node>
		<node id="81" x="777.613" y="877.445" >
		</node>
		<node id="82" x="1203.231" y="751.722" >
		</node>
		<node id="83" x="1431.312" y="684.349" >
		</node>
		<node id="84" x="1478.717" y="670.347" >
		</node>
		<node id="85" x="1508.205" y="661.636" >
		</node>
		<node id="86" x="-1852.614" y="741.799" >
		</node>
		<node id="87" x="-1648.856" y="708.46" >
		</node>
		<node id="88" x="-560.179" y="-281.87" >
		</node>
		<node id="89" x="-977.852" y="598.668" >
		</node>
		<node id="9" x="169.821" y="-796.641" >
		</node>
		<node id="90" x="-820.007" y="572.841" >
		</node>
		<node id="91" x="-671.093" y="548.82" >
		</node>
		<node id="92" x="-593.988" y="569.28" >
		</node>
		<node id="93" x="-429.334" y="612.971" >
		</node>
		<node id="94" x="174.68" y="549.772" >
		</node>
		<node id="95" x="318.406" y="507.536" >
		</node>
		<node id="96" x="555.448" y="437.878" >
		</node>
		<node id="97" x="-902.114" y="-462.468" >
		</node>
		<node id="98" x="-781.379" y="-218.006" >
		</node>
		<node id="99" x="774.962" y="373.372" >
		</node>
	</nodes>

<!-- ====================================================================== -->

	<links capperiod="01:00:00" effectivecellsize="7.5" effectivelanewidth="3.75">
		<link id="0" from="0" to="1" length="205.03408695854029" freespeed="11.11" capacity="174278.97391475923" permlanes="2.0" oneway="1" modes="taxi,car,walk" >
		</link>
		<link id="1" from="1" to="0" length="205.03408695854029" freespeed="11.11" capacity="174278.97391475923" permlanes="2.0" oneway="1" modes="taxi,car,walk" >
		</link>
		<link id="10" from="10" to="5" length="117.77621758232858" freespeed="11.11" capacity="100109.7849449793" permlanes="2.0" oneway="1" modes="taxi,car,walk" >
		</link>
		<link id="100" from="25" to="63" length="142.7685370275958" freespeed="11.11" capacity="121353.25647345644" permlanes="2.0" oneway="1" modes="taxi,car,walk" >
		</link>
		<link id="101" from="63" to="25" length="142.7685370275958" freespeed="11.11" capacity="121353.25647345644" permlanes="2.0" oneway="1" modes="taxi,car,walk" >
		</link>
		<link id="102" from="63" to="64" length="122.00975638447936" freespeed="11.11" capacity="103708.29292680745" permlanes="2.0" oneway="1" modes="taxi,car,walk" >
		</link>
		<link id="103" from="64" to="63" length="122.00975638447936" freespeed="11.11" capacity="103708.29292680745" permlanes="2.0" oneway="1" modes="taxi,car,walk" >
		</link>
		<link id="104" from="64" to="10" length="330.5820250437098" freespeed="11.11" capacity="280994.7212871533" permlanes="2.0" oneway="1" modes="taxi,car,walk" >
		</link>
		<link id="105" from="10" to="64" length="330.5820250437098" freespeed="11.11" capacity="280994.7212871533" permlanes="2.0" oneway="1" modes="taxi,car,walk" >
		</link>
		<link id="106" from="10" to="65" length="335.6176068221094" freespeed="11.11" capacity="285274.965798793" permlanes="2.0" oneway="1" modes="taxi,car,walk" >
		</link>
		<link id="107" from="65" to="10" length="335.6176068221094" freespeed="11.11" capacity="285274.965798793" permlanes="2.0" oneway="1" modes="taxi,car,walk" >
		</link>
		<link id="108" from="65" to="21" length="36.69825915489726" freespeed="11.11" capacity="31193.52028166267" permlanes="2.0" oneway="1" modes="taxi,car,walk" >
		</link>
		<link id="109" from="21" to="65" length="36.69825915489726" freespeed="11.11" capacity="31193.52028166267" permlanes="2.0" oneway="1" modes="taxi,car,walk" >
		</link>
		<link id="11" from="5" to="10" length="117.77621758232858" freespeed="11.11" capacity="100109.7849449793" permlanes="2.0" oneway="1" modes="taxi,car,walk" >
		</link>
		<link id="110" from="21" to="2" length="304.783544086619" freespeed="11.11" capacity="259066.01247362612" permlanes="2.0" oneway="1" modes="taxi,car,walk" >
		</link>
		<link id="111" from="2" to="21" length="304.783544086619" freespeed="11.11" capacity="259066.01247362612" permlanes="2.0" oneway="1" modes="taxi,car,walk" >
		</link>
		<link id="112" from="2" to="66" length="118.96760305646248" freespeed="11.11" capacity="101122.4625979931" permlanes="2.0" oneway="1" modes="taxi,car,walk" >
		</link>
		<link id="113" from="66" to="2" length="118.96760305646248" freespeed="11.11" capacity="101122.4625979931" permlanes="2.0" oneway="1" modes="taxi,car,walk" >
		</link>
		<link id="114" from="60" to="67" length="331.00133815674786" freespeed="11.11" capacity="281351.1374332357" permlanes="2.0" oneway="1" modes="taxi,car,walk" >
		</link>
		<link id="115" from="67" to="60" length="331.00133815674786" freespeed="11.11" capacity="281351.1374332357" permlanes="2.0" oneway="1" modes="taxi,car,walk" >
		</link>
		<link id="116" from="36" to="68" length="274.41079106514746" freespeed="11.11" capacity="233249.17240537534" permlanes="2.0" oneway="1" modes="taxi,car,walk" >
		</link>
		<link id="117" from="68" to="36" length="274.41079106514746" freespeed="11.11" capacity="233249.17240537534" permlanes="2.0" oneway="1" modes="taxi,car,walk" >
		</link>
		<link id="118" from="68" to="69" length="94.57738762516124" freespeed="11.11" capacity="80390.77948138706" permlanes="2.0" oneway="1" modes="taxi,car,walk" >
		</link>
		<link id="119" from="69" to="68" length="94.57738762516124" freespeed="11.11" capacity="80390.77948138706" permlanes="2.0" oneway="1" modes="taxi,car,walk" >
		</link>
		<link id="12" from="5" to="11" length="160.30135110160487" freespeed="11.11" capacity="136256.14843636414" permlanes="2.0" oneway="1" modes="taxi,car,walk" >
		</link>
		<link id="120" from="62" to="70" length="145.29937236615993" freespeed="11.11" capacity="123504.46651123594" permlanes="2.0" oneway="1" modes="taxi,car,walk" >
		</link>
		<link id="121" from="70" to="62" length="145.29937236615993" freespeed="11.11" capacity="123504.46651123594" permlanes="2.0" oneway="1" modes="taxi,car,walk" >
		</link>
		<link id="122" from="70" to="71" length="123.40842947303074" freespeed="11.11" capacity="104897.16505207613" permlanes="2.0" oneway="1" modes="taxi,car,walk" >
		</link>
		<link id="123" from="71" to="70" length="123.40842947303074" freespeed="11.11" capacity="104897.16505207613" permlanes="2.0" oneway="1" modes="taxi,car,walk" >
		</link>
		<link id="124" from="71" to="72" length="285.1778278408053" freespeed="11.11" capacity="242401.15366468453" permlanes="2.0" oneway="1" modes="taxi,car,walk" >
		</link>
		<link id="125" from="72" to="71" length="285.1778278408053" freespeed="11.11" capacity="242401.15366468453" permlanes="2.0" oneway="1" modes="taxi,car,walk" >
		</link>
		<link id="126" from="72" to="42" length="249.07714009117737" freespeed="11.11" capacity="211715.56907750075" permlanes="2.0" oneway="1" modes="taxi,car,walk" >
		</link>
		<link id="127" from="42" to="72" length="249.07714009117737" freespeed="11.11" capacity="211715.56907750075" permlanes="2.0" oneway="1" modes="taxi,car,walk" >
		</link>
		<link id="128" from="42" to="73" length="236.28066831207323" freespeed="11.11" capacity="200838.56806526225" permlanes="2.0" oneway="1" modes="taxi,car,walk" >
		</link>
		<link id="129" from="73" to="42" length="236.28066831207323" freespeed="11.11" capacity="200838.56806526225" permlanes="2.0" oneway="1" modes="taxi,car,walk" >
		</link>
		<link id="13" from="11" to="5" length="160.30135110160487" freespeed="11.11" capacity="136256.14843636414" permlanes="2.0" oneway="1" modes="taxi,car,walk" >
		</link>
		<link id="130" from="73" to="74" length="173.15288332857773" freespeed="11.11" capacity="147179.95082929108" permlanes="2.0" oneway="1" modes="taxi,car,walk" >
		</link>
		<link id="131" from="74" to="73" length="173.15288332857773" freespeed="11.11" capacity="147179.95082929108" permlanes="2.0" oneway="1" modes="taxi,car,walk" >
		</link>
		<link id="132" from="75" to="76" length="144.62599546761984" freespeed="11.11" capacity="122932.09614747687" permlanes="2.0" oneway="1" modes="taxi,car,walk" >
		</link>
		<link id="133" from="76" to="75" length="144.62599546761984" freespeed="11.11" capacity="122932.09614747687" permlanes="2.0" oneway="1" modes="taxi,car,walk" >
		</link>
		<link id="134" from="14" to="18" length="142.78896869506409" freespeed="11.11" capacity="121370.62339080447" permlanes="2.0" oneway="1" modes="taxi,car,walk" >
		</link>
		<link id="135" from="18" to="14" length="142.78896869506409" freespeed="11.11" capacity="121370.62339080447" permlanes="2.0" oneway="1" modes="taxi,car,walk" >
		</link>
		<link id="136" from="67" to="22" length="49.64382022095022" freespeed="11.11" capacity="42197.24718780768" permlanes="2.0" oneway="1" modes="taxi,car,walk" >
		</link>
		<link id="137" from="22" to="67" length="49.64382022095022" freespeed="11.11" capacity="42197.24718780768" permlanes="2.0" oneway="1" modes="taxi,car,walk" >
		</link>
		<link id="138" from="18" to="56" length="100.29527596552091" freespeed="11.11" capacity="85250.98457069277" permlanes="2.0" oneway="1" modes="taxi,car,walk" >
		</link>
		<link id="139" from="56" to="18" length="100.29527596552091" freespeed="11.11" capacity="85250.98457069277" permlanes="2.0" oneway="1" modes="taxi,car,walk" >
		</link>
		<link id="14" from="12" to="13" length="316.29999066234575" freespeed="11.11" capacity="268854.9920629939" permlanes="2.0" oneway="1" modes="taxi,car,walk" >
		</link>
		<link id="140" from="56" to="77" length="136.80871525600995" freespeed="11.11" capacity="116287.40796760845" permlanes="2.0" oneway="1" modes="taxi,car,walk" >
		</link>
		<link id="141" from="77" to="56" length="136.80871525600995" freespeed="11.11" capacity="116287.40796760845" permlanes="2.0" oneway="1" modes="taxi,car,walk" >
		</link>
		<link id="142" from="78" to="79" length="157.778882975511" freespeed="11.11" capacity="134112.05052918437" permlanes="2.0" oneway="1" modes="taxi,car,walk" >
		</link>
		<link id="143" from="79" to="78" length="157.778882975511" freespeed="11.11" capacity="134112.05052918437" permlanes="2.0" oneway="1" modes="taxi,car,walk" >
		</link>
		<link id="144" from="73" to="80" length="215.73898926712334" freespeed="11.11" capacity="183378.14087705483" permlanes="2.0" oneway="1" modes="taxi,car,walk" >
		</link>
		<link id="145" from="80" to="73" length="215.73898926712334" freespeed="11.11" capacity="183378.14087705483" permlanes="2.0" oneway="1" modes="taxi,car,walk" >
		</link>
		<link id="146" from="80" to="81" length="483.20423355450856" freespeed="11.11" capacity="410723.59852133226" permlanes="2.0" oneway="1" modes="taxi,car,walk" >
		</link>
		<link id="147" from="81" to="80" length="483.20423355450856" freespeed="11.11" capacity="410723.59852133226" permlanes="2.0" oneway="1" modes="taxi,car,walk" >
		</link>
		<link id="148" from="81" to="82" length="443.7983265549792" freespeed="11.11" capacity="377228.57757173234" permlanes="2.0" oneway="1" modes="taxi,car,walk" >
		</link>
		<link id="149" from="82" to="81" length="443.7983265549792" freespeed="11.11" capacity="377228.57757173234" permlanes="2.0" oneway="1" modes="taxi,car,walk" >
		</link>
		<link id="15" from="13" to="12" length="316.29999066234575" freespeed="11.11" capacity="268854.9920629939" permlanes="2.0" oneway="1" modes="taxi,car,walk" >
		</link>
		<link id="150" from="82" to="83" length="237.82359784092063" freespeed="11.11" capacity="202150.05816478253" permlanes="2.0" oneway="1" modes="taxi,car,walk" >
		</link>
		<link id="151" from="83" to="82" length="237.82359784092063" freespeed="11.11" capacity="202150.05816478253" permlanes="2.0" oneway="1" modes="taxi,car,walk" >
		</link>
		<link id="152" from="83" to="84" length="49.429647267606725" freespeed="11.11" capacity="42015.20017746572" permlanes="2.0" oneway="1" modes="taxi,car,walk" >
		</link>
		<link id="153" from="84" to="83" length="49.429647267606725" freespeed="11.11" capacity="42015.20017746572" permlanes="2.0" oneway="1" modes="taxi,car,walk" >
		</link>
		<link id="154" from="84" to="85" length="30.74774243745368" freespeed="11.11" capacity="26135.58107183563" permlanes="2.0" oneway="1" modes="taxi,car,walk" >
		</link>
		<link id="155" from="85" to="84" length="30.74774243745368" freespeed="11.11" capacity="26135.58107183563" permlanes="2.0" oneway="1" modes="taxi,car,walk" >
		</link>
		<link id="156" from="86" to="87" length="206.46745865874362" freespeed="11.11" capacity="175497.33985993208" permlanes="2.0" oneway="1" modes="taxi,car,walk" >
		</link>
		<link id="157" from="87" to="86" length="206.46745865874362" freespeed="11.11" capacity="175497.33985993208" permlanes="2.0" oneway="1" modes="taxi,car,walk" >
		</link>
		<link id="158" from="88" to="67" length="665.74681058087" freespeed="11.11" capacity="565884.7889937395" permlanes="2.0" oneway="1" modes="taxi,car,walk" >
		</link>
		<link id="159" from="67" to="88" length="665.74681058087" freespeed="11.11" capacity="565884.7889937395" permlanes="2.0" oneway="1" modes="taxi,car,walk" >
		</link>
		<link id="16" from="13" to="14" length="170.20117735491723" freespeed="11.11" capacity="144671.00075167965" permlanes="2.0" oneway="1" modes="taxi,car,walk" >
		</link>
		<link id="160" from="87" to="31" length="97.96874444944163" freespeed="11.11" capacity="83273.43278202538" permlanes="2.0" oneway="1" modes="taxi,car,walk" >
		</link>
		<link id="161" from="31" to="87" length="97.96874444944163" freespeed="11.11" capacity="83273.43278202538" permlanes="2.0" oneway="1" modes="taxi,car,walk" >
		</link>
		<link id="162" from="31" to="33" length="198.89816648978945" freespeed="11.11" capacity="169063.44151632104" permlanes="2.0" oneway="1" modes="taxi,car,walk" >
		</link>
		<link id="163" from="33" to="31" length="198.89816648978945" freespeed="11.11" capacity="169063.44151632104" permlanes="2.0" oneway="1" modes="taxi,car,walk" >
		</link>
		<link id="164" from="33" to="27" length="191.63186276034577" freespeed="11.11" capacity="162887.0833462939" permlanes="2.0" oneway="1" modes="taxi,car,walk" >
		</link>
		<link id="165" from="27" to="33" length="191.63186276034577" freespeed="11.11" capacity="162887.0833462939" permlanes="2.0" oneway="1" modes="taxi,car,walk" >
		</link>
		<link id="166" from="27" to="89" length="191.42817184782393" freespeed="11.11" capacity="162713.94607065033" permlanes="2.0" oneway="1" modes="taxi,car,walk" >
		</link>
		<link id="167" from="89" to="27" length="191.42817184782393" freespeed="11.11" capacity="162713.94607065033" permlanes="2.0" oneway="1" modes="taxi,car,walk" >
		</link>
		<link id="168" from="89" to="90" length="159.94398380057942" freespeed="11.11" capacity="135952.3862304925" permlanes="2.0" oneway="1" modes="taxi,car,walk" >
		</link>
		<link id="169" from="90" to="89" length="159.94398380057942" freespeed="11.11" capacity="135952.3862304925" permlanes="2.0" oneway="1" modes="taxi,car,walk" >
		</link>
		<link id="17" from="14" to="13" length="170.20117735491723" freespeed="11.11" capacity="144671.00075167965" permlanes="2.0" oneway="1" modes="taxi,car,walk" >
		</link>
		<link id="170" from="91" to="92" length="79.77338293566334" freespeed="11.11" capacity="67807.37549531384" permlanes="2.0" oneway="1" modes="taxi,car,walk" >
		</link>
		<link id="171" from="92" to="91" length="79.77338293566334" freespeed="11.11" capacity="67807.37549531384" permlanes="2.0" oneway="1" modes="taxi,car,walk" >
		</link>
		<link id="172" from="92" to="93" length="170.35211532880953" freespeed="11.11" capacity="144799.2980294881" permlanes="2.0" oneway="1" modes="taxi,car,walk" >
		</link>
		<link id="173" from="93" to="92" length="170.35211532880953" freespeed="11.11" capacity="144799.2980294881" permlanes="2.0" oneway="1" modes="taxi,car,walk" >
		</link>
		<link id="174" from="72" to="94" length="215.03867933234707" freespeed="11.11" capacity="182782.877432495" permlanes="2.0" oneway="1" modes="taxi,car,walk" >
		</link>
		<link id="175" from="94" to="72" length="215.03867933234707" freespeed="11.11" capacity="182782.877432495" permlanes="2.0" oneway="1" modes="taxi,car,walk" >
		</link>
		<link id="176" from="94" to="95" length="149.80334699865688" freespeed="11.11" capacity="127332.84494885834" permlanes="2.0" oneway="1" modes="taxi,car,walk" >
		</link>
		<link id="177" from="95" to="94" length="149.80334699865688" freespeed="11.11" capacity="127332.84494885834" permlanes="2.0" oneway="1" modes="taxi,car,walk" >
		</link>
		<link id="178" from="95" to="96" length="247.06506577822773" freespeed="11.11" capacity="210005.30591149357" permlanes="2.0" oneway="1" modes="taxi,car,walk" >
		</link>
		<link id="179" from="96" to="95" length="247.06506577822773" freespeed="11.11" capacity="210005.30591149357" permlanes="2.0" oneway="1" modes="taxi,car,walk" >
		</link>
		<link id="18" from="14" to="15" length="325.0478850907971" freespeed="11.11" capacity="276290.7023271775" permlanes="2.0" oneway="1" modes="taxi,car,walk" >
		</link>
		<link id="180" from="97" to="98" length="307.03579126569423" freespeed="11.11" capacity="260980.4225758401" permlanes="2.0" oneway="1" modes="taxi,car,walk" >
		</link>
		<link id="181" from="98" to="97" length="307.03579126569423" freespeed="11.11" capacity="260980.4225758401" permlanes="2.0" oneway="1" modes="taxi,car,walk" >
		</link>
		<link id="182" from="96" to="99" length="228.7955861287538" freespeed="11.11" capacity="194476.24820944073" permlanes="2.0" oneway="1" modes="taxi,car,walk" >
		</link>
		<link id="183" from="99" to="96" length="228.7955861287538" freespeed="11.11" capacity="194476.24820944073" permlanes="2.0" oneway="1" modes="taxi,car,walk" >
		</link>
		<link id="184" from="99" to="100" length="198.30920664457312" freespeed="11.11" capacity="168562.82564788716" permlanes="2.0" oneway="1" modes="taxi,car,walk" >
		</link>
		<link id="185" from="100" to="99" length="198.30920664457312" freespeed="11.11" capacity="168562.82564788716" permlanes="2.0" oneway="1" modes="taxi,car,walk" >
		</link>
		<link id="186" from="100" to="38" length="307.3662683021675" freespeed="11.11" capacity="261261.32805684238" permlanes="2.0" oneway="1" modes="taxi,car,walk" >
		</link>
		<link id="187" from="38" to="100" length="307.3662683021675" freespeed="11.11" capacity="261261.32805684238" permlanes="2.0" oneway="1" modes="taxi,car,walk" >
		</link>
		<link id="188" from="38" to="3" length="84.78161463430607" freespeed="11.11" capacity="72064.37243916016" permlanes="2.0" oneway="1" modes="taxi,car,walk" >
		</link>
		<link id="189" from="3" to="38" length="84.78161463430607" freespeed="11.11" capacity="72064.37243916016" permlanes="2.0" oneway="1" modes="taxi,car,walk" >
		</link>
		<link id="19" from="15" to="14" length="325.0478850907971" freespeed="11.11" capacity="276290.7023271775" permlanes="2.0" oneway="1" modes="taxi,car,walk" >
		</link>
		<link id="190" from="3" to="101" length="46.079172963498415" freespeed="11.11" capacity="39167.29701897365" permlanes="2.0" oneway="1" modes="taxi,car,walk" >
		</link>
		<link id="191" from="101" to="3" length="46.079172963498415" freespeed="11.11" capacity="39167.29701897365" permlanes="2.0" oneway="1" modes="taxi,car,walk" >
		</link>
		<link id="192" from="102" to="13" length="111.86365580473402" freespeed="11.11" capacity="95084.10743402391" permlanes="2.0" oneway="1" modes="taxi,car,walk" >
		</link>
		<link id="193" from="13" to="102" length="111.86365580473402" freespeed="11.11" capacity="95084.10743402391" permlanes="2.0" oneway="1" modes="taxi,car,walk" >
		</link>
		<link id="194" from="13" to="17" length="139.20900992751868" freespeed="11.11" capacity="118327.65843839088" permlanes="2.0" oneway="1" modes="taxi,car,walk" >
		</link>
		<link id="195" from="17" to="13" length="139.20900992751868" freespeed="11.11" capacity="118327.65843839088" permlanes="2.0" oneway="1" modes="taxi,car,walk" >
		</link>
		<link id="196" from="17" to="55" length="82.8610455702799" freespeed="11.11" capacity="70431.88873473792" permlanes="2.0" oneway="1" modes="taxi,car,walk" >
		</link>
		<link id="197" from="55" to="17" length="82.8610455702799" freespeed="11.11" capacity="70431.88873473792" permlanes="2.0" oneway="1" modes="taxi,car,walk" >
		</link>
		<link id="198" from="102" to="76" length="183.12563612176206" freespeed="11.11" capacity="155656.79070349774" permlanes="2.0" oneway="1" modes="taxi,car,walk" >
		</link>
		<link id="199" from="76" to="102" length="183.12563612176206" freespeed="11.11" capacity="155656.79070349774" permlanes="2.0" oneway="1" modes="taxi,car,walk" >
		</link>
		<link id="2" from="2" to="3" length="576.9858371069579" freespeed="11.11" capacity="490437.9615409142" permlanes="2.0" oneway="1" modes="taxi,car,walk" >
		</link>
		<link id="20" from="16" to="17" length="350.2917044664345" freespeed="11.11" capacity="297747.9487964693" permlanes="2.0" oneway="1" modes="taxi,car,walk" >
		</link>
		<link id="200" from="103" to="98" length="319.62662382223414" freespeed="11.11" capacity="271682.630248899" permlanes="2.0" oneway="1" modes="taxi,car,walk" >
		</link>
		<link id="201" from="98" to="103" length="319.62662382223414" freespeed="11.11" capacity="271682.630248899" permlanes="2.0" oneway="1" modes="taxi,car,walk" >
		</link>
		<link id="202" from="98" to="60" length="322.7169285927906" freespeed="11.11" capacity="274309.389303872" permlanes="2.0" oneway="1" modes="taxi,car,walk" >
		</link>
		<link id="203" from="60" to="98" length="322.7169285927906" freespeed="11.11" capacity="274309.389303872" permlanes="2.0" oneway="1" modes="taxi,car,walk" >
		</link>
		<link id="204" from="98" to="88" length="230.23477256053226" freespeed="11.11" capacity="195699.55667645243" permlanes="2.0" oneway="1" modes="taxi,car,walk" >
		</link>
		<link id="205" from="88" to="98" length="230.23477256053226" freespeed="11.11" capacity="195699.55667645243" permlanes="2.0" oneway="1" modes="taxi,car,walk" >
		</link>
		<link id="206" from="88" to="104" length="507.0798750936582" freespeed="11.11" capacity="431017.89382960944" permlanes="2.0" oneway="1" modes="taxi,car,walk" >
		</link>
		<link id="207" from="104" to="88" length="507.0798750936582" freespeed="11.11" capacity="431017.89382960944" permlanes="2.0" oneway="1" modes="taxi,car,walk" >
		</link>
		<link id="208" from="104" to="105" length="174.1104043416131" freespeed="11.11" capacity="147993.84369037114" permlanes="2.0" oneway="1" modes="taxi,car,walk" >
		</link>
		<link id="209" from="105" to="104" length="174.1104043416131" freespeed="11.11" capacity="147993.84369037114" permlanes="2.0" oneway="1" modes="taxi,car,walk" >
		</link>
		<link id="21" from="17" to="16" length="350.2917044664345" freespeed="11.11" capacity="297747.9487964693" permlanes="2.0" oneway="1" modes="taxi,car,walk" >
		</link>
		<link id="210" from="105" to="106" length="170.9787107946483" freespeed="11.11" capacity="145331.90417545105" permlanes="2.0" oneway="1" modes="taxi,car,walk" >
		</link>
		<link id="211" from="106" to="105" length="170.9787107946483" freespeed="11.11" capacity="145331.90417545105" permlanes="2.0" oneway="1" modes="taxi,car,walk" >
		</link>
		<link id="212" from="57" to="107" length="209.32125932403522" freespeed="11.11" capacity="177923.07042542993" permlanes="2.0" oneway="1" modes="taxi,car,walk" >
		</link>
		<link id="213" from="107" to="57" length="209.32125932403522" freespeed="11.11" capacity="177923.07042542993" permlanes="2.0" oneway="1" modes="taxi,car,walk" >
		</link>
		<link id="214" from="107" to="89" length="101.653833006926" freespeed="11.11" capacity="86405.75805588711" permlanes="2.0" oneway="1" modes="taxi,car,walk" >
		</link>
		<link id="215" from="89" to="107" length="101.653833006926" freespeed="11.11" capacity="86405.75805588711" permlanes="2.0" oneway="1" modes="taxi,car,walk" >
		</link>