<?xml version="1.0" encoding="utf-8"?>
<!DOCTYPE population SYSTEM "http://www.matsim.org/files/dtd/population_v6.dtd">

<population>



<!-- ====================================================================== -->

	<person id="noActivity0">
		<plan selected="yes">
			<activity type="home" x="-1047.199237074792" y="902.6101146149751" start_time="00:00:00" end_time="14:00:00" >
			</activity>
			<leg mode="car">
			</leg>
			<activity type="leisure" x="215.88321669247745" y="321.3025533775402" start_time="10:00:00" end_time="16:00:00" >
			</activity>
			<leg mode="car">
			</leg>
			<activity type="home" x="-1047.199237074792" y="902.6101146149751" start_time="18:18:59" end_time="24:00:00" >
			</activity>
		</plan>

		<plan selected="no">
			<activity type="home" x="-1047.199237074792" y="902.6101146149751" start_time="00:00:00" end_time="12:00:00" >
			</activity>
			<leg mode="car">
			</leg>
			<activity type="shopping" x="83.72243972885818" y="448.2907971108787" start_time="09:00:00" end_time="13:00:00" >
			</activity>
			<leg mode="car">
			</leg>
			<activity type="home" x="-1047.199237074792" y="902.6101146149751" start_time="18:18:59" end_time="24:00:00" >
			</activity>
		</plan>

		<plan selected="no">
			<activity type="home" x="-1047.199237074792" y="902.6101146149751" start_time="00:00:00" end_time="15:00:00" >
			</activity>
			<leg mode="car">
			</leg>
			<activity type="leisure" x="215.88321669247745" y="321.3025533775402" start_time="10:00:00" end_time="17:00:00" >
			</activity>
			<leg mode="car">
			</leg>
			<activity type="shopping" x="83.72243972885818" y="448.2907971108787" start_time="17:30:00" end_time="18:30:00" >
			</activity>
			<leg mode="car">
			</leg>
			<activity type="home" x="-1047.199237074792" y="902.6101146149751" start_time="18:18:59" end_time="24:00:00" >
			</activity>
		</plan>

		<plan selected="no">
			<activity type="home" x="-1047.199237074792" y="902.6101146149751" start_time="00:00:00" end_time="07:48:59" >
			</activity>
			<leg mode="car">
			</leg>
			<activity type="study" x="-193.3690055037649" y="569.6157930701949" start_time="08:28:59" end_time="08:38:59" >
			</activity>
			<leg mode="car">
			</leg>
			<activity type="shopping" x="83.72243972885818" y="448.2907971108787" start_time="09:08:59" end_time="10:08:59" >
			</activity>
			<leg mode="car">
			</leg>
			<activity type="home" x="-1047.199237074792" y="902.6101146149751" start_time="10:38:59" end_time="13:58:59" >
			</activity>
			<leg mode="car">
			</leg>
			<activity type="study" x="-193.3690055037649" y="569.6157930701949" start_time="14:28:59" end_time="14:38:59" >
			</activity>
			<leg mode="car">
			</leg>
			<activity type="leisure" x="215.88321669247745" y="321.3025533775402" start_time="10:00:00" end_time="07:48:59" >
			</activity>
			<leg mode="car">
			</leg>
			<activity type="study" x="-193.3690055037649" y="569.6157930701949" start_time="17:28:59" end_time="17:38:59" >
			</activity>
			<leg mode="car">
			</leg>
			<activity type="home" x="-1047.199237074792" y="902.6101146149751" start_time="18:18:59" end_time="24:00:00" >
			</activity>
		</plan>

	</person>

<!-- ====================================================================== -->

	<person id="noActivity1">
		<plan selected="yes">
			<activity type="home" x="-117.45014533807358" y="951.718915977244" start_time="00:00:00" end_time="16:00:00" >
			</activity>
			<leg mode="car">
			</leg>
			<activity type="leisure" x="-1101.307564358105" y="655.6181330768684" start_time="10:00:00" end_time="18:00:00" >
			</activity>
			<leg mode="car">
			</leg>
			<activity type="home" x="-117.45014533807358" y="951.718915977244" start_time="17:58:02" end_time="24:00:00" >
			</activity>
		</plan>

		<plan selected="no">
			<activity type="home" x="-117.45014533807358" y="951.718915977244" start_time="00:00:00" end_time="15:00:00" >
			</activity>
			<leg mode="car">
			</leg>
			<activity type="shopping" x="-158.6836091766522" y="-1.783205169940478" start_time="09:00:00" end_time="16:00:00" >
			</activity>
			<leg mode="car">
			</leg>
			<activity type="home" x="-117.45014533807358" y="951.718915977244" start_time="17:58:02" end_time="24:00:00" >
			</activity>
		</plan>

		<plan selected="no">
			<activity type="home" x="-117.45014533807358" y="951.718915977244" start_time="00:00:00" end_time="16:00:00" >
			</activity>
			<leg mode="car">
			</leg>
			<activity type="leisure" x="-1101.307564358105" y="655.6181330768684" start_time="10:00:00" end_time="16:00:00" >
			</activity>
			<leg mode="car">
			</leg>
			<activity type="shopping" x="-158.6836091766522" y="-1.783205169940478" start_time="16:30:00" end_time="17:30:00" >
			</activity>
			<leg mode="car">
			</leg>
			<activity type="home" x="-117.45014533807358" y="951.718915977244" start_time="17:58:02" end_time="24:00:00" >
			</activity>
		</plan>

		<plan selected="no">
			<activity type="home" x="-117.45014533807358" y="951.718915977244" start_time="00:00:00" end_time="07:28:02" >
			</activity>
			<leg mode="car">
			</leg>
			<activity type="study" x="-193.3690055037649" y="569.6157930701949" start_time="08:08:02" end_time="08:18:02" >
			</activity>
			<leg mode="car">
			</leg>
			<activity type="shopping" x="-158.6836091766522" y="-1.783205169940478" start_time="08:48:02" end_time="09:48:02" >
			</activity>
			<leg mode="car">
			</leg>
			<activity type="home" x="-117.45014533807358" y="951.718915977244" start_time="10:18:02" end_time="13:38:02" >
			</activity>
			<leg mode="car">
			</leg>
			<activity type="study" x="-193.3690055037649" y="569.6157930701949" start_time="14:08:02" end_time="14:18:02" >
			</activity>
			<leg mode="car">
			</leg>
			<activity type="leisure" x="-1101.307564358105" y="655.6181330768684" start_time="10:00:00" end_time="07:28:02" >
			</activity>
			<leg mode="car">
			</leg>
			<activity type="study" x="-193.3690055037649" y="569.6157930701949" start_time="17:08:02" end_time="17:18:02" >
			</activity>
			<leg mode="car">
			</leg>
			<activity type="home" x="-117.45014533807358" y="951.718915977244" start_time="17:58:02" end_time="24:00:00" >
			</activity>
		</plan>

	</person>

<!-- ====================================================================== -->

	<person id="noActivity11">
		<plan selected="yes">
			<activity type="home" x="-1209.8085445725608" y="172.4283412890998" start_time="00:00:00" end_time="16:00:00" >
			</activity>
			<leg mode="car">
			</leg>
			<activity type="leisure" x="-1440.9243515965659" y="-23.865957813334756" start_time="10:00:00" end_time="19:00:00" >
			</activity>
			<leg mode="car">
			</leg>
			<activity type="home" x="-1209.8085445725608" y="172.4283412890998" start_time="18:14:50" end_time="24:00:00" >
			</activity>
		</plan>

		<plan selected="no">
			<activity type="home" x="-1209.8085445725608" y="172.4283412890998" start_time="00:00:00" end_time="09:00:00" >
			</activity>
			<leg mode="car">
			</leg>
			<activity type="shopping" x="-209.96323544610922" y="1106.360104379744" start_time="09:00:00" end_time="10:00:00" >
			</activity>
			<leg mode="car">
			</leg>
			<activity type="home" x="-1209.8085445725608" y="172.4283412890998" start_time="18:14:50" end_time="24:00:00" >
			</activity>
		</plan>

		<plan selected="no">
			<activity type="home" x="-1209.8085445725608" y="172.4283412890998" start_time="00:00:00" end_time="08:00:00" >
			</activity>
			<leg mode="car">
			</leg>
			<activity type="leisure" x="-1440.9243515965659" y="-23.865957813334756" start_time="10:00:00" end_time="09:00:00" >
			</activity>
			<leg mode="car">
			</leg>
			<activity type="shopping" x="-209.96323544610922" y="1106.360104379744" start_time="09:30:00" end_time="10:30:00" >
			</activity>
			<leg mode="car">
			</leg>
			<activity type="home" x="-1209.8085445725608" y="172.4283412890998" start_time="18:14:50" end_time="24:00:00" >
			</activity>
		</plan>

		<plan selected="no">
			<activity type="home" x="-1209.8085445725608" y="172.4283412890998" start_time="00:00:00" end_time="07:44:50" >
			</activity>
			<leg mode="car">
			</leg>
			<activity type="study" x="-193.3690055037649" y="569.6157930701949" start_time="08:24:50" end_time="08:34:50" >
			</activity>
			<leg mode="car">
			</leg>
			<activity type="shopping" x="-209.96323544610922" y="1106.360104379744" start_time="09:04:50" end_time="10:04:50" >
			</activity>
			<leg mode="car">
			</leg>
			<activity type="home" x="-1209.8085445725608" y="172.4283412890998" start_time="10:34:50" end_time="13:54:50" >
			</activity>
			<leg mode="car">
			</leg>
			<activity type="study" x="-193.3690055037649" y="569.6157930701949" start_time="14:24:50" end_time="14:34:50" >
			</activity>
			<leg mode="car">
			</leg>
			<activity type="leisure" x="-1440.9243515965659" y="-23.865957813334756" start_time="10:00:00" end_time="08:44:50" >
			</activity>
			<leg mode="car">
			</leg>
			<activity type="study" x="-193.3690055037649" y="569.6157930701949" start_time="17:24:50" end_time="17:34:50" >
			</activity>
			<leg mode="car">
			</leg>
			<activity type="home" x="-1209.8085445725608" y="172.4283412890998" start_time="18:14:50" end_time="24:00:00" >
			</activity>
		</plan>

	</person>

<!-- ====================================================================== -->

	<person id="noActivity13">
		<plan selected="yes">
			<activity type="home" x="502.6647627936601" y="-189.0088088620174" start_time="00:00:00" end_time="08:00:00" >
			</activity>
			<leg mode="car">
			</leg>
			<activity type="leisure" x="-850.2409654472228" y="132.14908992625232" start_time="10:00:00" end_time="08:00:00" >
			</activity>
			<leg mode="car">
			</leg>
			<activity type="home" x="502.6647627936601" y="-189.0088088620174" start_time="18:02:15" end_time="24:00:00" >
			</activity>
		</plan>

		<plan selected="no">
			<activity type="home" x="502.6647627936601" y="-189.0088088620174" start_time="00:00:00" end_time="15:00:00" >
			</activity>
			<leg mode="car">
			</leg>
			<activity type="shopping" x="167.76061489111393" y="-695.9647947561039" start_time="09:00:00" end_time="16:00:00" >
			</activity>
			<leg mode="car">
			</leg>
			<activity type="home" x="502.6647627936601" y="-189.0088088620174" start_time="18:02:15" end_time="24:00:00" >
			</activity>
		</plan>

		<plan selected="no">
			<activity type="home" x="502.6647627936601" y="-189.0088088620174" start_time="00:00:00" end_time="12:00:00" >
			</activity>
			<leg mode="car">
			</leg>
			<activity type="leisure" x="-850.2409654472228" y="132.14908992625232" start_time="10:00:00" end_time="12:00:00" >
			</activity>
			<leg mode="car">
			</leg>
			<activity type="shopping" x="167.76061489111393" y="-695.9647947561039" start_time="12:30:00" end_time="13:30:00" >
			</activity>
			<leg mode="car">
			</leg>
			<activity type="home" x="502.6647627936601" y="-189.0088088620174" start_time="18:02:15" end_time="24:00:00" >
			</activity>
		</plan>

		<plan selected="no">
			<activity type="home" x="502.6647627936601" y="-189.0088088620174" start_time="00:00:00" end_time="07:32:15" >
			</activity>
			<leg mode="car">
			</leg>
			<activity type="study" x="-960.9139093285586" y="791.3737075502111" start_time="08:12:15" end_time="08:22:15" >
			</activity>
			<leg mode="car">
			</leg>
			<activity type="shopping" x="167.76061489111393" y="-695.9647947561039" start_time="08:52:15" end_time="09:52:15" >
			</activity>
			<leg mode="car">
			</leg>
			<activity type="home" x="502.6647627936601" y="-189.0088088620174" start_time="10:22:15" end_time="13:42:15" >
			</activity>
			<leg mode="car">
			</leg>
			<activity type="study" x="-960.9139093285586" y="791.3737075502111" start_time="14:12:15" end_time="14:22:15" >
			</activity>
			<leg mode="car">
			</leg>
			<activity type="leisure" x="-850.2409654472228" y="132.14908992625232" start_time="10:00:00" end_time="09:32:15" >
			</activity>
			<leg mode="car">
			</leg>
			<activity type="study" x="-960.9139093285586" y="791.3737075502111" start_time="17:12:15" end_time="17:22:15" >
			</activity>
			<leg mode="car">
			</leg>
			<activity type="home" x="502.6647627936601" y="-189.0088088620174" start_time="18:02:15" end_time="24:00:00" >
			</activity>
		</plan>

	</person>

<!-- ====================================================================== -->

	<person id="noActivity17">
		<plan selected="yes">
			<activity type="home" x="257.8506147988786" y="-615.1659532167678" start_time="00:00:00" end_time="17:00:00" >
			</activity>
			<leg mode="car">
			</leg>
			<activity type="leisure" x="-1120.639934940029" y="1046.323937686322" start_time="10:00:00" end_time="18:00:00" >
			</activity>
			<leg mode="car">
			</leg>
			<activity type="home" x="257.8506147988786" y="-615.1659532167678" start_time="17:54:18" end_time="24:00:00" >
			</activity>
		</plan>

		<plan selected="no">
			<activity type="home" x="257.8506147988786" y="-615.1659532167678" start_time="00:00:00" end_time="15:00:00" >
			</activity>
			<leg mode="car">
			</leg>
			<activity type="shopping" x="672.7301908914757" y="438.4310965080402" start_time="09:00:00" end_time="16:00:00" >
			</activity>
			<leg mode="car">
			</leg>
			<activity type="home" x="257.8506147988786" y="-615.1659532167678" start_time="17:54:18" end_time="24:00:00" >
			</activity>
		</plan>

		<plan selected="no">
			<activity type="home" x="257.8506147988786" y="-615.1659532167678" start_time="00:00:00" end_time="11:00:00" >
			</activity>
			<leg mode="car">
			</leg>
			<activity type="leisure" x="-1120.639934940029" y="1046.323937686322" start_time="10:00:00" end_time="12:00:00" >
			</activity>
			<leg mode="car">
			</leg>
			<activity type="shopping" x="672.7301908914757" y="438.4310965080402" start_time="12:30:00" end_time="13:30:00" >
			</activity>
			<leg mode="car">
			</leg>
			<activity type="home" x="257.8506147988786" y="-615.1659532167678" start_time="17:54:18" end_time="24:00:00" >
			</activity>
		</plan>

		<plan selected="no">
			<activity type="home" x="257.8506147988786" y="-615.1659532167678" start_time="00:00:00" end_time="07:24:18" >
			</activity>
			<leg mode="car">
			</leg>
			<activity type="study" x="-170.7988087372272" y="-531.9598320270427" start_time="08:04:18" end_time="08:14:18" >
			</activity>
			<leg mode="car">
			</leg>
			<activity type="shopping" x="672.7301908914757" y="438.4310965080402" start_time="08:44:18" end_time="09:44:18" >
			</activity>
			<leg mode="car">
			</leg>
			<activity type="home" x="257.8506147988786" y="-615.1659532167678" start_time="10:14:18" end_time="13:34:18" >
			</activity>
			<leg mode="car">
			</leg>
			<activity type="study" x="-170.7988087372272" y="-531.9598320270427" start_time="14:04:18" end_time="14:14:18" >
			</activity>
			<leg mode="car">
			</leg>
			<activity type="leisure" x="-1120.639934940029" y="1046.323937686322" start_time="10:00:00" end_time="07:24:18" >
			</activity>
			<leg mode="car">
			</leg>
			<activity type="study" x="-170.7988087372272" y="-531.9598320270427" start_time="17:04:18" end_time="17:14:18" >
			</activity>
			<leg mode="car">
			</leg>
			<activity type="home" x="257.8506147988786" y="-615.1659532167678" start_time="17:54:18" end_time="24:00:00" >
			</activity>
		</plan>

	</person>

<!-- ====================================================================== -->

	<person id="noActivity19">
		<plan selected="yes">
			<activity type="home" x="-1396.745266504388" y="298.0450586538617" start_time="00:00:00" end_time="09:00:00" >
			</activity>
			<leg mode="car">
			</leg>
			<activity type="leisure" x="-1281.573495512084" y="797.2714660554429" start_time="10:00:00" end_time="10:00:00" >
			</activity>
			<leg mode="car">
			</leg>
			<activity type="home" x="-1396.745266504388" y="298.0450586538617" start_time="17:52:55" end_time="24:00:00" >
			</activity>
		</plan>

		<plan selected="no">
			<activity type="home" x="-1396.745266504388" y="298.0450586538617" start_time="00:00:00" end_time="09:00:00" >
			</activity>
			<leg mode="car">
			</leg>
			<activity type="shopping" x="227.38158163471508" y="396.13253306834434" start_time="09:00:00" end_time="10:00:00" >
			</activity>
			<leg mode="car">
			</leg>
			<activity type="home" x="-1396.745266504388" y="298.0450586538617" start_time="17:52:55" end_time="24:00:00" >
			</activity>
		</plan>

		<plan selected="no">
			<activity type="home" x="-1396.745266504388" y="298.0450586538617" start_time="00:00:00" end_time="08:00:00" >
			</activity>
			<leg mode="car">
			</leg>
			<activity type="leisure" x="-1281.573495512084" y="797.2714660554429" start_time="10:00:00" end_time="08:00:00" >
			</activity>
			<leg mode="car">
			</leg>
			<activity type="shopping" x="227.38158163471508" y="396.13253306834434" start_time="08:30:00" end_time="09:30:00" >
			</activity>
			<leg mode="car">
			</leg>
			<activity type="home" x="-1396.745266504388" y="298.0450586538617" start_time="17:52:55" end_time="24:00:00" >
			</activity>
		</plan>

		<plan selected="no">
			<activity type="home" x="-1396.745266504388" y="298.0450586538617" start_time="00:00:00" end_time="07:22:55" >
			</activity>
			<leg mode="car">
			</leg>
			<activity type="study" x="-170.7988087372272" y="-531.9598320270427" start_time="08:02:55" end_time="08:12:55" >
			</activity>
			<leg mode="car">
			</leg>
			<activity type="shopping" x="227.38158163471508" y="396.13253306834434" start_time="08:42:55" end_time="09:42:55" >
			</activity>
			<leg mode="car">
			</leg>
			<activity type="home" x="-1396.745266504388" y="298.0450586538617" start_time="10:12:55" end_time="13:32:55" >
			</activity>
			<leg mode="car">
			</leg>
			<activity type="study" x="-170.7988087372272" y="-531.9598320270427" start_time="14:02:55" end_time="14:12:55" >
			</activity>
			<leg mode="car">
			</leg>
			<activity type="leisure" x="-1281.573495512084" y="797.2714660554429" start_time="10:00:00" end_time="08:22:55" >
			</activity>
			<leg mode="car">
			</leg>
			<activity type="study" x="-170.7988087372272" y="-531.9598320270427" start_time="17:02:55" end_time="17:12:55" >
			</activity>
			<leg mode="car">
			</leg>
			<activity type="home" x="-1396.745266504388" y="298.0450586538617" start_time="17:52:55" end_time="24:00:00" >
			</activity>
		</plan>

	</person>

<!-- ====================================================================== -->

	<person id="noActivity27">
		<plan selected="yes">
			<activity type="home" x="650.4857373243959" y="357.23808231648087" start_time="00:00:00" end_time="08:00:00" >
			</activity>
			<leg mode="car">
			</leg>
			<activity type="leisure" x="-842.0814329020385" y="29.450346073186825" start_time="10:00:00" end_time="10:00:00" >
			</activity>
			<leg mode="car">
			</leg>
			<activity type="home" x="650.4857373243959" y="357.23808231648087" start_time="18:08:16" end_time="24:00:00" >
			</activity>
		</plan>

		<plan selected="no">
			<activity type="home" x="650.4857373243959" y="357.23808231648087" start_time="00:00:00" end_time="15:00:00" >
			</activity>
			<leg mode="car">
			</leg>
			<activity type="shopping" x="-926.1808969377339" y="94.80422057969035" start_time="09:00:00" end_time="16:00:00" >
			</activity>
			<leg mode="car">
			</leg>
			<activity type="home" x="650.4857373243959" y="357.23808231648087" start_time="18:08:16" end_time="24:00:00" >
			</activity>
		</plan>

		<plan selected="no">
			<activity type="home" x="650.4857373243959" y="357.23808231648087" start_time="00:00:00" end_time="12:00:00" >
			</activity>
			<leg mode="car">
			</leg>
			<activity type="leisure" x="-842.0814329020385" y="29.450346073186825" start_time="10:00:00" end_time="14:00:00" >
			</activity>
			<leg mode="car">
			</leg>
			<activity type="shopping" x="-926.1808969377339" y="94.80422057969035" start_time="14:30:00" end_time="15:30:00" >
			</activity>
			<leg mode="car">
			</leg>
			<activity type="home" x="650.4857373243959" y="357.23808231648087" start_time="18:08:16" end_time="24:00:00" >
			</activity>
		</plan>

		<plan selected="no">
			<activity type="home" x="650.4857373243959" y="357.23808231648087" start_time="00:00:00" end_time="07:38:16" >
			</activity>
			<leg mode="car">
			</leg>
			<activity type="study" x="-599.5432428646303" y="104.1719191400587" start_time="08:18:16" end_time="08:28:16" >
			</activity>
			<leg mode="car">
			</leg>
			<activity type="shopping" x="-926.1808969377339" y="94.80422057969035" start_time="08:58:16" end_time="09:58:16" >
			</activity>
			<leg mode="car">
			</leg>
			<activity type="home" x="650.4857373243959" y="357.23808231648087" start_time="10:28:16" end_time="13:48:16" >
			</activity>
			<leg mode="car">
			</leg>
			<activity type="study" x="-599.5432428646303" y="104.1719191400587" start_time="14:18:16" end_time="14:28:16" >
			</activity>
			<leg mode="car">
			</leg>
			<activity type="leisure" x="-842.0814329020385" y="29.450346073186825" start_time="10:00:00" end_time="07:38:16" >
			</activity>
			<leg mode="car">
			</leg>
			<activity type="study" x="-599.5432428646303" y="104.1719191400587" start_time="17:18:16" end_time="17:28:16" >
			</activity>
			<leg mode="car">
			</leg>
			<activity type="home" x="650.4857373243959" y="357.23808231648087" start_time="18:08:16" end_time="24:00:00" >
			</activity>
		</plan>

	</person>

<!-- ====================================================================== -->

	<person id="noActivity28">
		<plan selected="yes">
			<activity type="home" x="497.2350542344109" y="344.5203494291076" start_time="00:00:00" end_time="13:00:00" >
			</activity>
			<leg mode="car">
			</leg>
			<activity type="leisure" x="393.5071534379961" y="617.7060935080207" start_time="10:00:00" end_time="13:00:00" >
			</activity>
			<leg mode="car">
			</leg>
			<activity type="home" x="497.2350542344109" y="344.5203494291076" start_time="17:56:43" end_time="24:00:00" >
			</activity>
		</plan>

		<plan selected="no">
			<activity type="home" x="497.2350542344109" y="344.5203494291076" start_time="00:00:00" end_time="08:00:00" >
			</activity>
			<leg mode="car">
			</leg>
			<activity type="shopping" x="-852.664057861615" y="-100.18012003977596" start_time="09:00:00" end_time="09:00:00" >
			</activity>
			<leg mode="car">
			</leg>
			<activity type="home" x="497.2350542344109" y="344.5203494291076" start_time="17:56:43" end_time="24:00:00" >
			</activity>
		</plan>

		<plan selected="no">
			<activity type="home" x="497.2350542344109" y="344.5203494291076" start_time="00:00:00" end_time="08:00:00" >
			</activity>
			<leg mode="car">
			</leg>
			<activity type="leisure" x="393.5071534379961" y="617.7060935080207" start_time="10:00:00" end_time="10:00:00" >
			</activity>
			<leg mode="car">
			</leg>
			<activity type="shopping" x="-852.664057861615" y="-100.18012003977596" start_time="10:30:00" end_time="11:30:00" >
			</activity>
			<leg mode="car">
			</leg>
			<activity type="home" x="497.2350542344109" y="344.5203494291076" start_time="17:56:43" end_time="24:00:00" >
			</activity>
		</plan>

		<plan selected="no">
			<activity type="home" x="497.2350542344109" y="344.5203494291076" start_time="00:00:00" end_time="07:26:43" >
			</activity>
			<leg mode="car">
			</leg>
			<activity type="study" x="-193.3690055037649" y="569.6157930701949" start_time="08:06:43" end_time="08:16:43" >
			</activity>
			<leg mode="car">
			</leg>
			<activity type="shopping" x="-852.664057861615" y="-100.18012003977596" start_time="08:46:43" end_time="09:46:43" >
			</activity>
			<leg mode="car">
			</leg>
			<activity type="home" x="497.2350542344109" y="344.5203494291076" start_time="10:16:43" end_time="13:36:43" >
			</activity>
			<leg mode="car">
			</leg>
			<activity type="study" x="-193.3690055037649" y="569.6157930701949" start_time="14:06:43" end_time="14:16:43" >
			</activity>
			<leg mode="car">
			</leg>
			<activity type="leisure" x="393.5071534379961" y="617.7060935080207" start_time="10:00:00" end_time="09:26:43" >
			</activity>
			<leg mode="car">
			</leg>
			<activity type="study" x="-193.3690055037649" y="569.6157930701949" start_time="17:06:43" end_time="17:16:43" >
			</activity>
			<leg mode="car">
			</leg>
			<activity type="home" x="497.2350542344109" y="344.5203494291076" start_time="17:56:43" end_time="24:00:00" >
			</activity>
		</plan>

	</person>

<!-- ====================================================================== -->

	<person id="noActivity29">
		<plan selected="yes">
			<activity type="home" x="413.0472670650734" y="432.20737245615834" start_time="00:00:00" end_time="13:00:00" >
			</activity>
			<leg mode="car">
			</leg>
			<activity type="leisure" x="-167.5804259866069" y="1117.9541141399402" start_time="10:00:00" end_time="15:00:00" >
			</activity>
			<leg mode="car">
			</leg>
			<activity type="home" x="413.0472670650734" y="432.20737245615834" start_time="16:10:00" end_time="24:00:00" >
			</activity>
		</plan>

		<plan selected="no">
			<activity type="home" x="413.0472670650734" y="432.20737245615834" start_time="00:00:00" end_time="12:00:00" >
			</activity>
			<leg mode="car">
			</leg>
			<activity type="shopping" x="-521.8726116134754" y="1111.0101617281957" start_time="09:00:00" end_time="13:00:00" >
			</activity>
			<leg mode="car">
			</leg>
			<activity type="home" x="413.0472670650734" y="432.20737245615834" start_time="16:10:00" end_time="24:00:00" >
			</activity>
		</plan>

		<plan selected="no">
			<activity type="home" x="413.0472670650734" y="432.20737245615834" start_time="00:00:00" end_time="14:00:00" >
			</activity>
			<leg mode="car">
			</leg>
			<activity type="leisure" x="-167.5804259866069" y="1117.9541141399402" start_time="10:00:00" end_time="14:00:00" >
			</activity>
			<leg mode="car">
			</leg>
			<activity type="shopping" x="-521.8726116134754" y="1111.0101617281957" start_time="14:30:00" end_time="15:30:00" >
			</activity>
			<leg mode="car">
			</leg>
			<activity type="home" x="413.0472670650734" y="432.20737245615834" start_time="16:10:00" end_time="24:00:00" >
			</activity>
		</plan>

	</person>

<!-- ====================================================================== -->

	<person id="noActivity3">
		<plan selected="yes">
			<activity type="home" x="52.642458132117845" y="1043.2356600844257" start_time="00:00:00" end_time="17:00:00" >
			</activity>
			<leg mode="car">
			</leg>
			<activity type="leisure" x="-842.0814329020385" y="29.450346073186825" start_time="10:00:00" end_time="19:00:00" >
			</activity>
			<leg mode="car">
			</leg>
			<activity type="home" x="52.642458132117845" y="1043.2356600844257" start_time="17:54:25" end_time="24:00:00" >
			</activity>
		</plan>

		<plan selected="no">
			<activity type="home" x="52.642458132117845" y="1043.2356600844257" start_time="00:00:00" end_time="10:00:00" >
			</activity>
			<leg mode="car">
			</leg>
			<activity type="shopping" x="-1225.4433543719042" y="417.42777328680023" start_time="09:00:00" end_time="11:00:00" >
			</activity>
			<leg mode="car">
			</leg>
			<activity type="home" x="52.642458132117845" y="1043.2356600844257" start_time="17:54:25" end_time="24:00:00" >
			</activity>
		</plan>

		<plan selected="no">
			<activity type="home" x="52.642458132117845" y="1043.2356600844257" start_time="00:00:00" end_time="11:00:00" >
			</activity>
			<leg mode="car">
			</leg>
			<activity type="leisure" x="-842.0814329020385" y="29.450346073186825" start_time="10:00:00" end_time="12:00:00" >
			</activity>
			<leg mode="car">
			</leg>
			<activity type="shopping" x="-1225.4433543719042" y="417.42777328680023" start_time="12:30:00" end_time="13:30:00" >
			</activity>
			<leg mode="car">
			</leg>
			<activity type="home" x="52.642458132117845" y="1043.2356600844257" start_time="17:54:25" end_time="24:00:00" >
			</activity>
		</plan>

		<plan selected="no">
			<activity type="home" x="52.642458132117845" y="1043.2356600844257" start_time="00:00:00" end_time="07:24:25" >
			</activity>
			<leg mode="car">
			</leg>
			<activity type="study" x="-193.3690055037649" y="569.6157930701949" start_time="08:04:25" end_time="08:14:25" >
			</activity>
			<leg mode="car">
			</leg>
			<activity type="shopping" x="-1225.4433543719042" y="417.42777328680023" start_time="08:44:25" end_time="09:44:25" >
			</activity>
			<leg mode="car">
			</leg>
			<activity type="home" x="52.642458132117845" y="1043.2356600844257" start_time="10:14:25" end_time="13:34:25" >
			</activity>
			<leg mode="car">
			</leg>
			<activity type="study" x="-193.3690055037649" y="569.6157930701949" start_time="14:04:25" end_time="14:14:25" >
			</activity>
			<leg mode="car">
			</leg>
			<activity type="leisure" x="-842.0814329020385" y="29.450346073186825" start_time="10:00:00" end_time="09:24:25" >
			</activity>
			<leg mode="car">
			</leg>
			<activity type="study" x="-193.3690055037649" y="569.6157930701949" start_time="17:04:25" end_time="17:14:25" >
			</activity>
			<leg mode="car">
			</leg>
			<activity type="home" x="52.642458132117845" y="1043.2356600844257" start_time="17:54:25" end_time="24:00:00" >
			</activity>
		</plan>

	</person>

<!-- ====================================================================== -->

	<person id="noActivity32">
		<plan selected="yes">
			<activity type="home" x="-706.8651861033353" y="-446.09758760671315" start_time="00:00:00" end_time="13:00:00" >
			</activity>
			<leg mode="car">
			</leg>
			<activity type="leisure" x="-96.92922518304516" y="250.13848464414787" start_time="10:00:00" end_time="16:00:00" >
			</activity>
			<leg mode="car">
			</leg>
			<activity type="home" x="-706.8651861033353" y="-446.09758760671315" start_time="18:18:55" end_time="24:00:00" >
			</activity>
		</plan>

		<plan selected="no">
			<activity type="home" x="-706.8651861033353" y="-446.09758760671315" start_time="00:00:00" end_time="10:00:00" >
			</activity>
			<leg mode="car">
			</leg>